0,   100.00, 31, 0, 1, 50.00     / PSS(R)E-31.0    SAT, SEP 17 2016  23:23


110000,'AKCANSA_A   ', 154.0000,1,   1,   2,  20,1.05925, -51.0131
110001,'AKCANSA_B   ', 154.0000,4,   1,   2,  20,1.00000,   0.0000
110029,'AKSARAY_A   ', 154.0000,1,   1,   2,   1,1.07893, -49.4609
110030,'AKSARAY_B   ', 154.0000,4,   1,   2,   1,1.00000,   0.0000
110031,'3AKSARAY_A  ',  34.5000,4,   1,   5,   2,1.00000,   0.0000
110032,'3AKSARAY_B  ',  34.5000,4,   1,   5,   2,1.00000,   0.0000
110058,'4ALIBEYKOY_A', 400.0000,1,   1,   1,   1,1.03521, -47.1298
110059,'4ALIBEYKOY_B', 400.0000,4,   1,   1,   1,1.00000,   0.0000
110060,'4ALIBYKY_TRS', 400.0000,4,   1,   1,   1,1.00000,   0.0000
110061,'ALIBEYKOY_A ', 154.0000,1,   1,   2,   1,1.07078, -48.5425
110062,'ALIBEYKOY_B ', 154.0000,1,   1,   2,   1,1.07228, -48.6218
110063,'ALIBEYKY_TRS', 154.0000,4,   1,   2,   1,1.00000,   0.0000
110071,'3ALIBEYKOY_A',  33.6000,4,   1,   5,   2,1.00000,   0.0000
110072,'3ALIBEYKOY_B',  33.6000,4,   1,   5,   2,1.00000,   0.0000
110091,'ALTINTEPE_A ', 154.0000,1,   1,   2,   1,1.07040, -49.0426
110092,'3ALTINTEPE_A',  34.5000,4,   1,   5,   2,1.00000,   0.0000
110112,'GUNESLI_GIS ', 154.0000,1,   1,   2,   1,1.06080, -51.5274
110115,'YAKUPLU_GIS ', 154.0000,1,   1,   2,   1,1.05814, -52.0734
110119,'AMBARLI_A   ', 154.0000,1,   1,   2,   1,1.05677, -46.7626
110120,'AMBARLI_TRS ', 154.0000,4,   1,   2,   1,1.00000,   0.0000
110121,'3AMBARLI_A  ',  34.5000,4,   1,   5,   2,1.00000,   0.0000
110122,'3AMBARLI_B  ',  34.5000,4,   1,   5,   2,1.00000,   0.0000
110123,'3AMBARLI_C  ',  34.5000,4,   1,   5,   2,1.00000,   0.0000
110148,'4AMBARL_DG_A', 400.0000,1,   1,   1,   1,1.03877, -47.5612
110149,'4AMBARL_DG_B', 400.0000,4,   1,   1,   1,1.00000,   0.0000
110150,'4AMBR_DG_TRS', 400.0000,4,   1,   1,   1,1.00000,   0.0000
110151,'AMBARLI_DG_A', 154.0000,1,   1,   2,   1,1.05698, -46.7102
110152,'AMBARLI_DG_B', 154.0000,1,   1,   2,   1,1.05897, -51.9148
110153,'AMBRL_DG_TRS', 154.0000,4,   1,   2,   1,1.00000,   0.0000
110154,'G-4AMBARLI1 ',  10.5000,4,   1,   6,   4,1.00000,   0.0000
110155,'G-4AMBARLI2 ',  10.5000,4,   1,   6,   4,1.00000,   0.0000
110156,'G-4AMBARLI3 ',  15.7500,4,   1,   6,   5,1.00000,   0.0000
110157,'G-AMBRLI_2A1',  10.5000,2,   1,   6,   4,1.00000, -42.5711
110158,'G-AMBRLI_2A2',  10.5000,2,   1,   6,   4,1.00000, -42.5711
110159,'G-AMBRLI_2A3',  15.7500,2,   1,   6,   5,1.00000, -41.6351
110160,'G-AMBRLI_2B1',  10.5000,4,   1,   6,   4,1.00000,   0.0000
110161,'G-AMBRLI_2B2',  10.5000,4,   1,   6,   4,1.00000,   0.0000
110162,'G-AMBRLI_2B3',  15.7500,4,   1,   6,   5,1.00000,   0.0000
110170,'4YENI_AMBARL', 400.0000,1,   1,   1,   1,1.03883, -47.5666
110173,'G-4YENI_AMBA',  10.5000,4,   1,   6,   4,1.00000,   0.0000
110174,'G-4YENI_AMBA',  10.5000,4,   1,   6,   4,1.00000,   0.0000
110181,'AMBARLI_FO_A', 154.0000,1,   1,   2,   1,1.05703, -46.7428
110182,'AMBARLI_FO_B', 154.0000,4,   1,   2,   1,1.00000,   0.0000
110183,'AMBARLI_FO_C', 154.0000,4,   1,   2,   1,1.00000,   0.0000
110184,'AMBARLI_FO_D', 154.0000,4,   1,   2,   1,1.00000,   0.0000
110212,'4ATISALANI_A', 400.0000,1,   1,   1,   1,1.03740, -47.4832
110213,'4ATISALANI_B', 400.0000,4,   1,   1,   1,1.00000,   0.0000
110214,'4ATISALN_TRS', 400.0000,4,   1,   1,   1,1.00000,   0.0000
110215,'ATISALANI_A ', 154.0000,1,   1,   2,   1,1.07609, -49.1573
110216,'ATISALANI_B ', 154.0000,1,   1,   2,   1,1.07973, -49.0273
110217,'3ATISALANI_A',  33.6000,4,   1,   5,   2,1.00000,   0.0000
110218,'3ATISALANI_B',  31.5000,4,   1,   5,   2,1.00000,   0.0000
110244,'BAGCILAR_A  ', 154.0000,1,   1,   2,   1,1.07590, -49.2133
110245,'BAGCILAR_B  ', 154.0000,1,   1,   2,   1,1.07584, -49.1547
110246,'3BAGCILAR_A ',  33.6000,4,   1,   5,   2,1.00000,   0.0000
110247,'3BAGCILAR_B ',  33.6000,4,   1,   5,   2,1.00000,   0.0000
110273,'BAHCELI_A   ', 154.0000,1,   1,   2,   1,1.07554, -49.2120
110274,'BAHCELI_B   ', 154.0000,1,   1,   2,   1,1.06946, -50.1867
110275,'3BAHCELÝ_A  ',  33.6000,4,   1,   5,   2,1.00000,   0.0000
110276,'3BAHCELÝ_B  ',  33.6000,4,   1,   5,   2,1.00000,   0.0000
110277,'BESYUZEVLER ', 154.0000,1,   1,   2,   1,1.07152, -48.8480
110278,'BESYUZEVLR_B', 154.0000,1,   1,   2,   1,1.07605, -49.1776
110302,'BAHCESEHIR_A', 154.0000,1,   1,   2,   1,1.06238, -49.2116
110303,'BAHCESEHIR_B', 154.0000,1,   1,   2,   1,1.06238, -49.2116
110304,'3BAHCESEH_A ',  33.6000,4,   1,   5,   2,1.00000,   0.0000
110305,'3BAHCESEH_B ',  33.6000,4,   1,   5,   2,1.00000,   0.0000
110308,'TOKI_KAYABAS', 154.0000,1,   1,   2,   1,1.06647, -48.3892
110331,'BEYLIKDUZU_A', 154.0000,1,   1,   2,   1,1.06080, -49.4496
110332,'BEYLIKDUZU_B', 154.0000,1,   1,   2,   1,1.05750, -52.1334
110336,'3BEYLIKDUZ_A',  33.6000,4,   1,   5,   2,1.00000,   0.0000
110337,'3BEYLIKDUZ_B',  33.6000,4,   1,   5,   2,1.00000,   0.0000
110338,'3BEYLIKDUZ_C',  33.6000,4,   1,   5,   2,1.00000,   0.0000
110356,'CAKIL_RES   ', 154.0000,1,   1,   2,   1,1.06375, -50.4718
110358,'G-CAKIL_RES ',  11.0000,2,   1,   6,  11,1.06384, -49.4406
110360,'BUYKCKMC_A  ', 154.0000,1,   1,   2,   1,1.05933, -51.0037
110361,'BUYKCKMC_TRS', 154.0000,4,   1,   2,   1,1.00000,   0.0000
110362,'3BYKCEKME_A ',  34.5000,4,   1,   5,   2,1.00000,   0.0000
110363,'3BYKCEKME_B ',  33.6000,4,   1,   5,   2,1.00000,   0.0000
110364,'3BYKCEKME_C ',  33.6000,4,   1,   5,   2,1.00000,   0.0000
110367,'FIRAT_PLASTK', 154.0000,1,   1,   2,   1,1.05924, -51.0139
110370,'4VIZE_HVZA  ', 400.0000,1,  20,   1,   1,1.03978, -48.1922
110373,'VIZE_HAVZA  ', 154.0000,1,  20,   2,   1,1.06408, -48.9721
110376,'EVRENCIK_RES', 154.0000,1,  20,   2,   1,1.05693, -48.7620
110378,'G-EVRENCIK  ',  11.0000,2,  20,   6,  11,1.01432, -47.7999
110380,'AIR_RES     ', 154.0000,1,  20,   2,   1,1.05817, -48.7977
110382,'G-AIR_RES   ',  11.0000,2,  20,   6,  11,1.01562, -47.8091
110384,'VIZE_RES    ', 154.0000,1,  20,   2,   1,1.05965, -48.8414
110386,'G-VIZE      ',  11.0000,4,  20,   6,  11,1.00000,   0.0000
110389,'4DAVUTPAS_A ', 400.0000,1,   1,   1,   1,1.03860, -47.6108
110390,'4DAVUTPAS_B ', 400.0000,4,   1,   1,   1,1.00000,   0.0000
110391,'DAVUTPASA_A ', 154.0000,1,   1,   2,   1,1.07984, -49.2465
110392,'DAVUTPASA_B ', 154.0000,1,   1,   2,   1,1.07552, -49.1402
110395,'3DAVUTPA_A  ',  34.5000,4,   1,   5,   2,1.00000,   0.0000
110396,'3DAVUTPA_B  ',  34.5000,4,   1,   5,   2,1.00000,   0.0000
110420,'ESENYURT_A  ', 154.0000,1,   1,   2,   1,1.06190, -49.2857
110421,'ESENYURT_B  ', 154.0000,4,   1,   2,   1,1.00000,   0.0000
110422,'G-ESENYURT1 ',  11.0000,4,   1,   6,  12,1.00000,   0.0000
110423,'G-ESENYURT2 ',  11.0000,4,   1,   6,  12,1.00000,   0.0000
110424,'G-ESENYURT3 ',  11.0000,4,   1,   6,  12,1.00000,   0.0000
110425,'G-ESENYURT4 ',  11.0000,4,   1,   6,  13,1.00000,   0.0000
110447,'4ETILER     ', 400.0000,1,   1,   1,   1,1.03728, -47.4802
110449,'ETILER      ', 154.0000,1,   1,   2,   1,1.07057, -48.7490
110450,'ETILER_B    ', 154.0000,4,   1,   2,   1,1.00000,   0.0000
110451,'3ETILER_A   ',  33.6000,4,   1,   5,   2,1.00000,   0.0000
110452,'3ETILER_B   ',  33.6000,4,   1,   5,   2,1.00000,   0.0000
110453,'3ETILER_C   ',  33.6000,4,   1,   5,   2,1.00000,   0.0000
110478,'4HABIPLER_A ', 400.0000,1,   1,   1,   1,1.03539, -46.9807
110479,'4HABIPLER_B ', 400.0000,4,   1,   1,   1,1.00000,   0.0000
110480,'4HABPLER_TRS', 400.0000,4,   1,   1,   1,1.00000,   0.0000
110481,'HABIPLER_A  ', 154.0000,1,   1,   2,   1,1.06732, -48.4686
110482,'HABIPLER_B  ', 154.0000,1,   1,   2,   1,1.06855, -48.4682
110483,'HABIPLER_TRS', 154.0000,4,   1,   2,   1,1.00000,   0.0000
110484,'3HABÝP_A    ',  33.6000,4,   1,   5,   2,1.00000,   0.0000
110485,'3HABÝP_B    ',  33.6000,4,   1,   5,   2,1.00000,   0.0000
110488,'DIREK_100   ', 400.0000,4,   1,   1,   1,1.00000,   0.0000
110489,'DIREK_100   ', 400.0000,1,   1,   1,   1,1.03539, -46.9807
110490,'DIREK_100   ', 400.0000,4,   1,   1,   1,1.00000,   0.0000
110491,'DIREK_100   ', 400.0000,4,   1,   1,   1,1.00000,   0.0000
110508,'ESENYURT_A  ', 154.0000,1,   1,   2,   1,1.05968, -47.4801
110509,'ESENYURT_B  ', 154.0000,1,   1,   2,   1,1.05968, -47.4801
110511,'HADIMKOY_A  ', 154.0000,1,   1,   2,   1,1.06323, -47.8674
110512,'HADIMKOY_TRS', 154.0000,4,   1,   2,   1,1.00000,   0.0000
110514,'3HADIM_A    ',  33.6000,4,   1,   5,   2,1.00000,   0.0000
110515,'3HADIM_B    ',  33.6000,4,   1,   5,   2,1.00000,   0.0000
110560,'4HADIMKOY   ', 400.0000,4,   1,   1,   1,1.00000,   0.0000
110562,'4HADIMKOY   ', 400.0000,4,   1,   1,   1,1.00000,   0.0000
110564,'4HADIMKOY   ', 400.0000,4,   1,   1,   1,1.00000,   0.0000
110565,'4HADIMKOY   ', 400.0000,1,   1,   1,   1,1.03984, -47.6459
110566,'HADIMMOY_OSB', 154.0000,1,   1,   2,   1,1.06641, -48.0043
110567,'HADIMKOY_OSB', 154.0000,1,   1,   2,   1,1.07079, -49.6812
110568,'HADIMKOY_OSB', 154.0000,1,   1,   2,   1,1.06641, -48.0043
110569,'4IKITELL_A  ', 400.0000,1,   1,   1,   1,1.03836, -47.4904
110570,'4IKITELL_B  ', 400.0000,4,   1,   1,   1,1.00000,   0.0000
110571,'4IKITELL_TRS', 400.0000,4,   1,   1,   1,1.00000,   0.0000
110572,'IKITELLI_A  ', 154.0000,1,   1,   2,   1,1.07654, -48.9586
110573,'IKITELLI_B  ', 154.0000,1,   1,   2,   1,1.07282, -49.4467
110574,'IKITELLI_C  ', 154.0000,4,   1,   2,   1,1.00000,   0.0000
110575,'IKITELLI_D  ', 154.0000,4,   1,   2,   1,1.00000,   0.0000
110576,'IKITELLI_TRS', 154.0000,4,   1,   2,   1,1.00000,   0.0000
110577,'3IKITELLI_A ',  34.5000,4,   1,   5,   2,1.00000,   0.0000
110578,'3IKITELLI_B ',  34.5000,4,   1,   5,   2,1.00000,   0.0000
110579,'3IKITELLI_C ',  34.5000,4,   1,   5,   2,1.00000,   0.0000
110580,'3IKITELLI_D ',  33.6000,4,   1,   5,   2,1.00000,   0.0000
110581,'3IKITELLI_E ',  34.5000,4,   1,   5,   2,1.00000,   0.0000
110604,'KASIMPASA_A ', 154.0000,1,   1,   2,   1,1.07481, -48.8522
110605,'KASIMPASA_B ', 154.0000,4,   1,   2,   1,1.00000,   0.0000
110606,'1KASIMPA_A  ',  11.1000,4,   1,   5,   2,1.00000,   0.0000
110607,'3KASIMPA_A  ',  33.6000,4,   1,   5,   2,1.00000,   0.0000
110608,'3KASIMPA_B  ',  33.6000,4,   1,   5,   2,1.00000,   0.0000
110633,'KUCUKKOY_A  ', 154.0000,1,   1,   2,   1,1.06667, -48.7427
110634,'KUCUKKOY_TRS', 154.0000,4,   1,   2,   1,1.00000,   0.0000
110635,'3KCKKOY_A   ',  34.5000,4,   1,   5,   2,1.00000,   0.0000
110636,'3KCKKOY_B   ',  33.6000,4,   1,   5,   2,1.00000,   0.0000
110637,'3KCKKOY_C   ',  34.5000,4,   1,   5,   2,1.00000,   0.0000
110662,'LEVENT_A    ', 154.0000,1,   1,   2,   1,1.07005, -48.8444
110663,'LEVENT_B    ', 154.0000,4,   1,   2,   1,1.00000,   0.0000
110664,'3LEVENT_A   ',  33.6000,4,   1,   5,   2,1.00000,   0.0000
110665,'3LEVENT_B   ',  33.6000,4,   1,   5,   2,1.00000,   0.0000
110666,'3LEVENT_C   ',  33.6000,4,   1,   5,   2,1.00000,   0.0000
110691,'MASLAK_A    ', 154.0000,1,   1,   2,   1,1.06991, -48.3481
110692,'MASLAK_B    ', 154.0000,4,   1,   2,   1,1.00000,   0.0000
110693,'3MASLAK_A   ',  34.5000,4,   1,   5,   2,1.00000,   0.0000
110694,'3MASLAK_B   ',  34.5000,4,   1,   5,   2,1.00000,   0.0000
110718,'4SAGMALCILAR', 400.0000,1,   1,   1,   1,1.03744, -47.4725
110720,'SAGMALCLAR_A', 154.0000,1,   1,   2,   1,1.07599, -49.1995
110721,'SAGMALCLAR_B', 154.0000,4,   1,   2,   1,1.00000,   0.0000
110722,'3SAGMALCI_A ',  35.0000,4,   1,   5,   2,1.00000,   0.0000
110723,'3SAGMALCI_B ',  35.0000,4,   1,   5,   2,1.00000,   0.0000
110724,'3SAGMALCI_C ',  33.6000,4,   1,   5,   2,1.00000,   0.0000
110749,'SILAHTAR    ', 154.0000,1,   1,   2,   1,1.07149, -48.8401
110750,'3SILAHTAR   ',  34.5000,4,   1,   5,   2,1.00000,   0.0000
110775,'SILIVRI_A   ', 154.0000,1,   1,   2,   1,1.05233, -51.6468
110776,'SILIVRI_B   ', 154.0000,4,   1,   2,   1,1.00000,   0.0000
110777,'3SILIVRI_B  ',  33.6000,4,   1,   5,   2,1.00000,   0.0000
110780,'3SILIVRI_A  ',  33.6000,4,   1,   5,   2,1.00000,   0.0000
110806,'SULTANMURT_A', 154.0000,1,   1,   2,   1,1.05751, -46.8275
110807,'SULTANMURT_B', 154.0000,1,   1,   2,   1,1.07978, -49.3905
110808,'3SLTNMURAT_A',  33.6000,4,   1,   5,   2,1.00000,   0.0000
110809,'3SLTNMURAT_B',  33.6000,4,   1,   5,   2,1.00000,   0.0000
110835,'SISLI_A     ', 154.0000,1,   1,   2,   1,1.07048, -48.7663
110836,'SISLI_B     ', 154.0000,4,   1,   2,   1,1.00000,   0.0000
110837,'1SISLI_A    ',  11.1000,4,   1,   5,   2,1.00000,   0.0000
110838,'3SISLI_A    ',  34.5000,4,   1,   5,   2,1.00000,   0.0000
110839,'3SISLI_B    ',  33.6000,4,   1,   5,   2,1.00000,   0.0000
110840,'SISLI_INTFCE', 154.0000,1,   1,   2,   1,1.07063, -48.6581
110861,'4TASOLUK    ', 400.0000,1,   1,   1,   1,1.03668, -47.5140
110864,'TASOLUK_A   ', 154.0000,1,   1,   2,   1,1.07057, -48.3829
110865,'TASOLUK_B   ', 154.0000,4,   1,   2,   1,1.00000,   0.0000
110866,'3TASOLUK_A  ',  33.6000,4,   1,   5,   2,1.00000,   0.0000
110867,'3TASOLUK_B  ',  33.6000,4,   1,   5,   2,1.00000,   0.0000
110893,'TOPKAPI_A   ', 154.0000,1,   1,   2,   1,1.07975, -49.2583
110894,'TOPKAPI_B   ', 154.0000,1,   1,   2,   1,1.07567, -49.2678
110921,'3TOPKAPI_A  ',  34.5000,4,   1,   5,   2,1.00000,   0.0000
110922,'3TOPKAPI_B  ',  34.5000,4,   1,   5,   2,1.00000,   0.0000
110949,'VELIEFENDI_A', 154.0000,1,   1,   2,   1,1.07476, -49.3197
110950,'VELIEFENDI_B', 154.0000,1,   1,   2,   1,1.06907, -50.3374
110951,'1VELIEFE_A  ',  11.5000,4,   1,   5,   2,1.00000,   0.0000
110952,'1VELIEFE_B  ',  11.1000,4,   1,   5,   2,1.00000,   0.0000
110953,'3VELIEFE_A  ',  34.5000,4,   1,   5,   2,1.00000,   0.0000
110954,'3VELIEFE_B  ',  33.6000,4,   1,   5,   2,1.00000,   0.0000
110971,'HALKALI     ', 154.0000,1,   1,   2,   1,1.07131, -49.7520
110974,'4YENIBOSNA  ', 400.0000,1,   1,   1,   1,1.03881, -47.7052
110978,'YENIBOSNA_A ', 154.0000,1,   1,   2,   1,1.06969, -50.1412
110979,'YENIBOSNA_B ', 154.0000,1,   1,   2,   1,1.07050, -49.8078
110982,'3YNBOSNA_A  ',  33.6000,4,   1,   5,   2,1.00000,   0.0000
110983,'3YNBOSNA_B  ',  33.6000,4,   1,   5,   2,1.00000,   0.0000
110984,'3YNBOSNA_C  ',  34.5000,4,   1,   5,   2,1.00000,   0.0000
110985,'3YNBOSNA_D  ',  33.6000,4,   1,   5,   2,1.00000,   0.0000
111007,'YENIKAPI    ', 154.0000,1,   1,   2,   1,1.07962, -49.3153
111008,'YENIKAPI_B  ', 154.0000,1,   1,   2,   1,1.07430, -49.4085
111030,'4CAGLAYAN   ', 400.0000,1,   1,   1,   1,1.03732, -47.4574
111032,'CAGLAYAN    ', 154.0000,1,   1,   2,   1,1.07061, -48.7254
111035,'4YILDIZTPE_A', 400.0000,1,   1,   1,   1,1.03720, -47.4252
111036,'4YILDIZTPE_B', 400.0000,4,   1,   1,   1,1.00000,   0.0000
111037,'YILDIZTEPE_A', 154.0000,1,   1,   2,   1,1.07156, -48.8276
111038,'YILDIZTEPE_B', 154.0000,1,   1,   2,   1,1.07501, -48.8065
111039,'3YILDIZTEP_A',  33.6000,4,   1,   5,   2,1.00000,   0.0000
111040,'3YILDIZTEP_B',  33.6000,4,   1,   5,   2,1.00000,   0.0000
111066,'4ZEKERIYKY_A', 400.0000,1,   1,   1,   1,1.02760, -45.8009
111067,'4ZEKERIYKY_B', 400.0000,4,   1,   1,   1,1.00000,   0.0000
111068,'ZEKERIYAKY_A', 154.0000,1,   1,   2,   1,1.07018, -47.6650
111069,'ZEKERIYAKY_B', 154.0000,4,   1,   2,   1,1.00000,   0.0000
111070,'3ZKRYKY_A   ',  34.5000,4,   1,   5,   2,1.00000,   0.0000
111071,'3ZKRYKY_B   ',  34.5000,4,   1,   5,   2,1.00000,   0.0000
111143,'82NOLU_DIREK', 400.0000,1,   1,   1,   1,1.03258, -46.5407
111144,'82NOLU_DIREK', 400.0000,4,   1,   1,   1,1.00000,   0.0000
111150,'KUZEY_HVLMNI', 154.0000,1,   1,   2,   1,1.06906, -48.5621
111151,'KUZEY_HVLMNI', 154.0000,4,   1,   2,   1,1.00000,   0.0000
120000,'AKCALAR     ', 154.0000,1,   2,   2,   1,1.02995, -41.8145
120001,'AKCALAR_TRS ', 154.0000,4,   2,   2,   1,1.00000,   0.0000
120002,'3AKCALAR_A  ',  34.5000,4,   2,   5,   2,1.00000,   0.0000
120028,'SAPDAGI_RES ', 154.0000,1,   2,   2,   1,1.04945, -40.4522
120030,'G-SAPDAGI   ',  11.0000,2,   2,   6,  11,1.04960, -39.6079
120031,'ALTINOLUK_A ', 154.0000,1,   2,   2,   1,1.04856, -40.9602
120032,'ALTINOLUK_B ', 154.0000,4,   2,   2,   1,1.00000,   0.0000
120033,'3AKCAY_A    ',  33.0000,4,   2,   5,   2,1.00000,   0.0000
120062,'ASILCELIK   ', 154.0000,1,   2,   2,  19,1.02668, -42.5111
120063,'ASILCELI_TRS', 154.0000,4,   2,   2,  19,1.00000,   0.0000
120064,'3ASILCELIK_A',  34.5000,4,   2,   5,  19,1.00000,   0.0000
120065,'3ASILCELIK_B',  34.5000,4,   2,   5,  19,1.00000,   0.0000
120066,'3ASILCELIK_C',  33.6000,4,   2,   5,  19,1.00000,   0.0000
120092,'ALIBEY_RES  ', 154.0000,1,   2,   2,   1,1.03639, -41.2856
120094,'G-ALIBEY    ',  11.0000,2,   2,   6,  11,1.03647, -40.2569
120095,'AYVALIK     ', 154.0000,1,   2,   2,   1,1.03593, -41.2661
120096,'AYVALIK_TRS ', 154.0000,4,   2,   2,   1,1.00000,   0.0000
120097,'3AYVALIK_B  ',  34.5000,4,   2,   5,   2,1.00000,   0.0000
120098,'3AYVALIK_A  ',  33.6000,4,   2,   5,   2,1.00000,   0.0000
120127,'BALIKESIR   ', 154.0000,1,   2,   2,   1,1.04080, -40.1393
120128,'3BALIKESR_A ',  34.5000,4,   2,   5,   2,1.00000,   0.0000
120129,'3BALIKESR_B ',  34.5000,4,   2,   5,   2,1.00000,   0.0000
120151,'ESAN        ', 154.0000,1,   2,   2,   1,1.04912, -40.2632
120155,'KAVAKLI_RES ', 154.0000,1,   2,   2,   1,1.04642, -40.0698
120157,'G-KAVAKLI   ',  11.0000,2,   2,   6,  11,1.04656, -39.2850
120158,'4BALIKESR2_A', 400.0000,1,   2,   1,   1,1.00768, -39.8851
120159,'4BALIKESR2_B', 400.0000,4,   2,   1,   1,1.00000,   0.0000
120160,'4BALIKSR_TRS', 400.0000,4,   2,   1,   1,1.00000,   0.0000
120161,'BALIKES2    ', 154.0000,1,   2,   2,   1,1.04181, -39.9918
120162,'BALIKES2_TRS', 154.0000,4,   2,   2,   1,1.00000,   0.0000
120163,'3BALKESR2_A ',  34.5000,4,   2,   5,   2,1.00000,   0.0000
120164,'1BALKESR2_A ',  15.8000,4,   2,   5,   2,1.00000,   0.0000
120165,'1BALKESR2_B ',  15.8000,4,   2,   5,   2,1.00000,   0.0000
120167,'BALIKESI_RES', 154.0000,1,   2,   2,   1,1.04238, -39.7839
120170,'G-BALIKESIR ',  11.0000,2,   2,   6,  11,1.04254, -38.9774
120172,'POYRAZ_RES  ', 154.0000,1,   2,   2,   1,1.04275, -39.6649
120174,'G-POYRAZ_RES',  11.0000,2,   2,   6,  11,1.04291, -38.8742
120180,'EDINCIK_RES ', 154.0000,1,   2,   2,   1,1.04045, -41.3806
120182,'G-EDINCIK   ',  11.0000,2,   2,   6,  11,1.04061, -40.6027
120191,'BALIKESR_OSB', 154.0000,1,   2,   2,   1,1.03835, -40.0556
120194,'BALIKESRSEKA', 154.0000,1,   2,   2,   1,1.03850, -39.9939
120195,'BLKSRSKA_TRS', 154.0000,4,   2,   2,   1,1.00000,   0.0000
120196,'3BLKSRSEKA_A',  34.5000,4,   2,   5,   2,1.00000,   0.0000
120197,'3BLKSRSEKA_B',  34.5000,4,   2,   5,   2,1.00000,   0.0000
120198,'1BLKSRSEKA_A',  10.5000,4,   2,   5,   2,1.00000,   0.0000
120199,'1BLKSRSEKA_B',  10.5000,4,   2,   5,   2,1.00000,   0.0000
120200,'TATLIPNR_RES', 154.0000,1,   2,   2,   1,1.02329, -39.2761
120202,'G-TATLIPINAR',  11.0000,2,   2,   6,  11,1.00000, -38.4006
120229,'BANDIRMA2   ', 154.0000,1,   2,   2,   1,1.04077, -41.5267
120230,'BANDRMA2_TRS', 154.0000,4,   2,   2,   1,1.00000,   0.0000
120231,'3BANDIRMA2_A',  34.5000,4,   2,   5,   2,1.00000,   0.0000
120232,'3BANDIRMA2_B',  34.5000,4,   2,   5,   2,1.00000,   0.0000
120267,'BANDIRMA3_A ', 154.0000,1,   2,   2,   1,1.03984, -41.2873
120268,'BANDIRMA3_B ', 154.0000,4,   2,   2,   1,1.00000,   0.0000
120269,'3BANDIRMA3_A',  34.5000,4,   2,   5,   2,1.00000,   0.0000
120270,'3BANDIRMA3_B',  34.5000,4,   2,   5,   2,1.00000,   0.0000
120299,'BARES       ', 154.0000,1,   2,   2,   1,1.04018, -41.2302
120300,'BARES_TRS   ', 154.0000,4,   2,   2,   1,1.00000,   0.0000
120301,'3BARES      ',  34.5000,4,   2,   5,   2,1.00000,   0.0000
120302,'G-BARES     ',  11.0000,2,   2,   6,  11,1.04034, -40.4215
120304,'SAH_RES     ', 154.0000,1,   2,   2,   1,1.03735, -40.0057
120307,'G-SAH_RES   ',  11.0000,2,   2,   6,  11,1.03751, -39.1891
120331,'BESEVLER_A  ', 154.0000,1,   2,   2,   1,1.02817, -41.8675
120332,'BESEVLER_B  ', 154.0000,4,   2,   2,   1,1.00000,   0.0000
120333,'3BESEVLER_A ',  33.6000,4,   2,   5,   2,1.00000,   0.0000
120334,'3BESEVLER_B ',  33.6000,4,   2,   5,   2,1.00000,   0.0000
120363,'BIGA        ', 154.0000,1,   2,   2,   1,1.05493, -42.7544
120364,'3BIGA_A     ',  34.5000,4,   2,   5,   2,1.00000,   0.0000
120365,'3BIGA_B     ',  34.5000,4,   2,   5,   2,1.00000,   0.0000
120366,'BIGA_DUMMY1 ', 154.0000,1,   2,   2,   1,1.05783, -42.6568
120367,'BIGA_DUMMY2 ', 154.0000,4,   2,   2,   1,1.00000,   0.0000
120394,'BIGADIC     ', 154.0000,1,   2,   2,   1,1.03739, -39.5584
120395,'BIGADIC_TRS ', 154.0000,4,   2,   2,   1,1.00000,   0.0000
120396,'3BIGADIC_A  ',  34.5000,4,   2,   5,   2,1.00000,   0.0000
120425,'BOSEN       ', 154.0000,1,   2,   2,   1,1.02763, -42.7414
120426,'BOSEN_TRS   ', 154.0000,4,   2,   2,   1,1.00000,   0.0000
120427,'3BOSEN_A    ',  11.5000,4,   2,   5,   2,1.00000,   0.0000
120428,'3BOSEN_B    ',  11.5000,4,   2,   5,   2,1.00000,   0.0000
120429,'3BOSEN_C    ',  11.5000,4,   2,   5,   2,1.00000,   0.0000
120432,'G-BOSEN3    ',  11.5000,4,   2,   6,  13,1.00000,   0.0000
120462,'OTOSANSITS_A', 154.0000,1,   2,   2,   1,1.02654, -42.6155
120463,'OTOSANSITS_B', 154.0000,4,   2,   2,   1,1.00000,   0.0000
120464,'3OTOSANSIT_A',  33.6000,4,   2,   5,   2,1.00000,   0.0000
120465,'3OTOSANSIT_B',  33.6000,4,   2,   5,   2,1.00000,   0.0000
120498,'BURSA1      ', 154.0000,1,   2,   2,   1,1.02715, -42.8910
120499,'3BURSA1_A   ',  34.5000,4,   2,   5,   2,1.00000,   0.0000
120500,'3BURSA1_B   ',  33.6000,4,   2,   5,   2,1.00000,   0.0000
120529,'BURSA3      ', 154.0000,1,   2,   2,   1,1.02648, -42.8626
120530,'BURSA3_TRS  ', 154.0000,4,   2,   2,   1,1.00000,   0.0000
120531,'3BURSA3_B   ',  34.5000,4,   2,   5,   2,1.00000,   0.0000
120532,'3BURSA3_A   ',  33.6000,4,   2,   5,   2,1.00000,   0.0000
120558,'MUDANYA     ', 154.0000,1,   2,   2,   1,1.02824, -42.0030
120561,'4BURSADG_A  ', 400.0000,1,   2,   1,   1,1.00287, -40.6756
120562,'4BURSADG_B  ', 400.0000,4,   2,   1,   1,1.00000,   0.0000
120563,'4BURSADG_TRS', 400.0000,4,   2,   1,   1,1.00000,   0.0000
120564,'BURSADG_A   ', 154.0000,1,   2,   2,   1,1.02614, -42.5129
120565,'BURSADG_B   ', 154.0000,1,   2,   2,   1,1.03019, -42.2017
120566,'BURSADG_C   ', 154.0000,4,   2,   2,   1,1.00000,   0.0000
120567,'BURSADG_D   ', 154.0000,4,   2,   2,   1,1.00000,   0.0000
120569,'G-4BURSADG1 ',  13.8000,4,   2,   6,   4,1.00000,   0.0000
120570,'G-4BURSADG2 ',  13.8000,4,   2,   6,   4,1.00000,   0.0000
120571,'G-4BURSADG3 ',  13.8000,4,   2,   6,   5,1.00000,   0.0000
120572,'G-BURSADG_A1',  13.8000,4,   2,   6,   5,1.00000,   0.0000
120573,'G-BURSADG_A2',  13.8000,4,   2,   6,   4,1.00000,   0.0000
120574,'G-BURSADG_B ',  13.8000,4,   2,   6,   4,1.00000,   0.0000
120603,'4BURSASAN_A ', 400.0000,1,   2,   1,   1,1.00084, -40.3687
120604,'4BURSASAN_B ', 400.0000,4,   2,   1,   1,1.00000,   0.0000
120605,'4BURSASN_TRS', 400.0000,4,   2,   1,   1,1.00000,   0.0000
120606,'BURSASNAYI_A', 154.0000,1,   2,   2,   1,1.02853, -41.8827
120607,'BURSASNAYI_B', 154.0000,1,   2,   2,   1,1.02818, -42.6933
120608,'BURSASNAYI_C', 154.0000,4,   2,   2,   1,1.00000,   0.0000
120609,'BURSASNY_TRS', 154.0000,4,   2,   2,   1,1.00000,   0.0000
120612,'G-ZORLU_BURS',  11.0000,4,   2,   6,  12,1.00000,   0.0000
120613,'3BURSASAN_D ',  34.5000,1,   2,   5,   2,0.93877, -42.6933
120614,'3BURSASAN_E ',  34.5000,4,   2,   5,   2,1.00000,   0.0000
120615,'3BURSASAN_F ',  34.5000,4,   2,   5,   2,1.00000,   0.0000
120616,'3BURSASAN_G ',  34.5000,4,   2,   5,   2,1.00000,   0.0000
120617,'3BURSASAN_J ',  34.5000,4,   2,   5,   2,1.00000,   0.0000
120618,'3ZORLUENJ1  ',  34.5000,4,   2,   5,   2,1.00000,   0.0000
120619,'3ZORLUENJ2  ',  34.5000,4,   2,   5,   2,1.00000,   0.0000
120657,'CAN         ', 154.0000,1,   2,   2,   1,1.05470, -40.5056
120658,'CAN_TRS     ', 154.0000,4,   2,   2,   1,1.00000,   0.0000
120659,'3CAN_A      ',  34.5000,4,   2,   5,   2,1.00000,   0.0000
120660,'3CAN_B      ',  34.5000,4,   2,   5,   2,1.00000,   0.0000
120661,'4CAN_2_TES  ', 400.0000,1,   2,   1,   1,1.02791, -41.6178
120664,'G-4CAN_TES  ',  15.0000,4,   2,   6,  15,1.00000,   0.0000
120667,'4CAN_HAVZA  ', 400.0000,1,   2,   1,   1,1.02784, -41.6175
120670,'CAN_HAVZA1  ', 154.0000,1,   2,   2,   1,1.05274, -39.7507
120671,'G-CAN_HAVZA1',  15.8000,2,   2,   6,  11,1.04497, -38.7560
120672,'CAN_SAPLAMA ', 154.0000,4,   2,   2,   1,1.00000,   0.0000
120673,'KORU_RES    ', 154.0000,1,   2,   2,   1,1.05146, -39.6948
120675,'G-KORU      ',  11.0000,2,   2,   6,  11,1.02687, -38.6270
120677,'TUMAD_LAPSEK', 154.0000,1,   2,   2,   1,1.05147, -39.7087
120678,'KOCALAR_RES ', 154.0000,1,   2,   2,   1,1.05279, -39.7349
120680,'G-KOCALAR   ',  11.0000,2,   2,   6,  11,1.05289, -38.7814
120681,'UCPINAR_RES ', 154.0000,1,   2,   2,   1,1.05294, -39.6664
120682,'G-UCPINAR   ',  11.0000,2,   2,   6,  11,1.05304, -38.6765
120692,'CANAKKALE   ', 154.0000,1,   2,   2,   1,1.04980, -40.8055
120693,'3CANAKKALE  ',  31.5000,4,   2,   5,   2,1.00000,   0.0000
120722,'CANAKKALECIM', 154.0000,1,   2,   2,   1,1.04733, -41.4517
120723,'CANKKLCM_TRS', 154.0000,4,   2,   2,   1,1.00000,   0.0000
120724,'3CANKKALECIM',  31.5000,4,   2,   5,   2,1.00000,   0.0000
120770,'CANTS_A     ', 154.0000,1,   2,   2,   1,1.05306, -40.0059
120771,'CANTS_B     ', 154.0000,4,   2,   2,   1,1.00000,   0.0000
120772,'G-CANTS1    ',  15.0000,4,   2,   6,   8,1.00000,   0.0000
120773,'G-CANTS2    ',  15.0000,2,   2,   6,   8,1.07607, -34.7320
120802,'DEMIRTAS_A  ', 154.0000,1,   2,   2,   1,1.02588, -42.4699
120803,'DEMIRTAS_B  ', 154.0000,4,   2,   2,   1,1.00000,   0.0000
120804,'3DEMIRTAS_A ',  33.6000,4,   2,   5,   2,1.00000,   0.0000
120805,'3DEMIRTAS_B ',  33.6000,4,   2,   5,   2,1.00000,   0.0000
120834,'DURSNBYLI   ', 154.0000,1,   2,   2,   1,1.03155, -38.4728
120835,'DURSNBYL_TRS', 154.0000,4,   2,   2,   1,1.00000,   0.0000
120836,'3DURSUNBEY_A',  34.5000,4,   2,   5,   2,1.00000,   0.0000
120862,'TUMAD_BALIKE', 154.0000,1,   2,   2,   1,1.03834, -40.9821
120865,'EDREMIT2    ', 154.0000,1,   2,   2,   1,1.03759, -41.5328
120866,'EDREMIT2_TRS', 154.0000,4,   2,   2,   1,1.00000,   0.0000
120867,'3EDREMIT    ',  34.5000,4,   2,   5,   2,1.00000,   0.0000
120897,'CNKLENRJSA_B', 154.0000,4,   2,   2,   1,1.00000,   0.0000
120898,'3CNKLENRSA_A',  34.5000,4,   2,   5,   2,1.00000,   0.0000
120899,'3CNKLENRSA_B',  34.5000,4,   2,   5,   2,1.00000,   0.0000
120931,'ENTEK_B     ', 154.0000,4,   2,   2,   1,1.00000,   0.0000
120932,'3ENTEK_A    ',  34.5000,4,   2,   5,   2,1.00000,   0.0000
120933,'3ENTEK_B    ',  34.5000,4,   2,   5,   2,1.00000,   0.0000
120934,'3ENTEK_C    ',  34.5000,4,   2,   5,   2,1.00000,   0.0000
120960,'KAPIDAG_RES ', 154.0000,1,   2,   2,   1,1.04408, -41.9840
120964,'G-KAPIDAG   ',  11.0000,2,   2,   6,  11,1.04423, -41.2336
120967,'ERDEK       ', 154.0000,1,   2,   2,   1,1.04407, -41.9877
120968,'ERDEK_TRS   ', 154.0000,4,   2,   2,   1,1.00000,   0.0000
120969,'3ERDEK      ',  34.5000,4,   2,   5,   2,1.00000,   0.0000
120998,'EZINE       ', 154.0000,1,   2,   2,   1,1.04779, -41.2569
120999,'3EZINE      ',  34.5000,4,   2,   5,   2,1.00000,   0.0000
121024,'KUREKDAG_RES', 154.0000,1,   2,   2,   1,1.02509, -42.4505
121026,'G-KUREKDAG  ',  11.0000,2,   2,   6,  11,1.00000, -41.5776
121028,'GEMLIK      ', 154.0000,1,   2,   2,   1,1.02769, -42.5744
121029,'GEMLIK_TRS  ', 154.0000,4,   2,   2,   1,1.00000,   0.0000
121030,'3GEMLIK_A   ',  34.5000,4,   2,   5,   2,1.00000,   0.0000
121031,'3GEMLIK_B   ',  34.5000,4,   2,   5,   2,1.00000,   0.0000
121032,'3GEMLIK_C   ',  34.5000,4,   2,   5,   2,1.00000,   0.0000
121033,'1GEMLIK_A   ',   6.3000,4,   2,   5,   2,1.00000,   0.0000
121063,'GOBEL       ', 154.0000,1,   2,   2,   1,1.03527, -40.5399
121064,'GOBEL_TRS   ', 154.0000,4,   2,   2,   1,1.00000,   0.0000
121065,'3GOBEL_A    ',  34.5000,4,   2,   5,   2,1.00000,   0.0000
121066,'3GOBEL_B    ',  34.5000,4,   2,   5,   2,1.00000,   0.0000
121091,'PAZARKOY_RES', 154.0000,1,   2,   2,   1,1.03430, -40.4637
121093,'G-PAZARKOY  ',  11.0000,2,   2,   6,  11,1.00000, -39.5544
121095,'GONEN       ', 154.0000,1,   2,   2,   1,1.04272, -40.7735
121096,'GONEN_TRS   ', 154.0000,4,   2,   2,   1,1.00000,   0.0000
121097,'3GONEN_A    ',  34.5000,4,   2,   5,   2,1.00000,   0.0000
121131,'GORUKLE_A   ', 154.0000,1,   2,   2,   1,1.02860, -41.9943
121132,'GORUKLE_B   ', 154.0000,4,   2,   2,   1,1.00000,   0.0000
121133,'3GORUKLE_A  ',  33.6000,4,   2,   5,   2,1.00000,   0.0000
121162,'INEGOL      ', 154.0000,1,   2,   2,   1,1.02514, -41.8412
121163,'INEGOL_TRS  ', 154.0000,4,   2,   2,   1,1.00000,   0.0000
121164,'3INEGOL_A   ',  33.6000,4,   2,   5,   2,1.00000,   0.0000
121165,'3INEGOL_B   ',  33.6000,4,   2,   5,   2,1.00000,   0.0000
121166,'INEGOL_2    ', 154.0000,1,   2,   2,   1,1.02498, -42.0175
121199,'4KARABGA_A  ', 400.0000,1,   2,   1,  19,1.03236, -42.8179
121200,'4KARABIGA_B ', 400.0000,4,   2,   1,  19,1.00000,   0.0000
121201,'4KARABGA_TRS', 400.0000,4,   2,   1,  19,1.00000,   0.0000
121202,'KARABIGA    ', 154.0000,1,   2,   2,   1,1.06011, -42.5300
121203,'KARABIGA_TRS', 154.0000,4,   2,   2,   1,1.00000,   0.0000
121206,'3KARABIGA   ',  33.6000,4,   2,   5,   2,1.00000,   0.0000
121210,'G-4ICDAS    ',  13.8000,4,   2,   6,  14,1.00000,   0.0000
121211,'G-4ICDAS    ',  13.8000,4,   2,   6,  14,1.00000,   0.0000
121212,'G-4ICDAS    ',  13.8000,4,   2,   6,  14,1.00000,   0.0000
121213,'ICDAS_RES   ', 154.0000,1,   2,   2,   1,1.06012, -42.5228
121215,'G-ICDAS_RES ',   6.3000,2,   2,   6,  11,1.06021, -41.5396
121217,'4KIRAZLIDERE', 400.0000,1,   2,   1,   1,1.03557, -43.0195
121220,'G-4KIRAZLIDE',  11.0000,4,   2,   6,  14,1.00000,   0.0000
121221,'G-4KIRAZLIDE',  11.0000,4,   2,   6,  14,1.00000,   0.0000
121222,'4ICDAS_2    ', 400.0000,1,   2,   1,   1,1.03463, -42.8402
121225,'G-4ICDAS_2  ',  21.8000,2,   2,   6,  14,1.00000, -35.6485
121226,'G-4ICDAS_2  ',  21.8000,4,   2,   6,  14,1.00000,   0.0000
121230,'4LAPSEKI_A  ', 400.0000,1,   2,   1,   1,1.03960, -43.8949
121232,'4LAPSEKI_B  ', 400.0000,1,   2,   1,   1,1.03948, -43.8731
121234,'KARACABEY_A ', 154.0000,1,   2,   2,   1,1.02931, -41.3965
121235,'KARACABEY_B ', 154.0000,4,   2,   2,   1,1.00000,   0.0000
121236,'3KARACABEY_A',  33.6000,4,   2,   5,   2,1.00000,   0.0000